*HEADING
This file was created for the AnyBody-Abaqus interface demonstration purpose 
*NODE
       1,  1.494994e-001,  9.776373e-003, -2.473422e-002
       2,  1.397652e-001,  9.642898e-003, -2.182784e-002
       3,  1.418280e-001,  6.165392e-003, -1.788549e-002
       4,  1.459366e-001,  1.040759e-002, -1.978884e-002
       5,  1.522914e-001,  1.127555e-002, -1.906021e-002
       6,  1.576768e-001,  7.523637e-003, -1.641496e-002
       7,  1.575830e-001,  1.147587e-002, -1.411795e-002
       8,  1.492001e-001,  1.302531e-002, -9.161276e-003
       9,  1.443519e-001,  1.445130e-002, -1.625331e-002
      10,  1.538741e-001,  1.439826e-002, -1.555185e-002
      11,  1.444223e-001,  3.539123e-003, -1.109133e-002
      12,  1.527480e-001,  5.568493e-003, -1.783467e-002
      13,  1.050113e-002,  7.584746e-003, -1.446101e-002
      14,  1.407077e-002,  1.544590e-003, -1.311617e-002
      15,  1.784430e-002,  4.912757e-003, -1.099022e-002
      16,  1.258440e-002,  6.447583e-003, -8.753607e-003
      17,  1.685882e-002,  1.421191e-003, -1.925833e-002
      18,  1.975450e-002, -5.971752e-004, -1.227749e-002
      19,  1.431952e-002, -6.404974e-003, -1.001798e-002
      20,  1.429286e-002,  8.360225e-004, -8.327986e-003
** ... 209 like lines cut
*ELEMENT, TYPE=C3D4, ELSET=allelements
       1,       1,       2,       3,       4
       2,       5,       6,       7,       8
       3,       8,       9,      10,       5
       4,       8,      11,       9,       4
       5,       1,       4,      12,       5
       6,       3,       9,      11,       4
       7,      13,      14,      15,      16
       8,      17,      15,      14,      18
       9,      19,      18,      14,      20
      10,      21,      17,      14,      18
      11,      14,      20,      16,      22
      12,      21,      14,      19,      18
      13,      23,      20,      14,      22
      14,      24,      25,      26,      27
      15,      28,      29,      30,      31
      16,      32,      29,      31,      33
      17,      30,      34,      31,      29
      18,      35,      36,      37,      38
      19,      35,      39,      38,      40
      20,      41,      42,      43,      44
** ... 652 like lines cut
*SOLID SECTION, MATERIAL=BONE, ELSET=allelements
*MATERIAL, NAME=BONE
*ELASTIC, TYPE=ISO
5000000, 0.3, 10
